/batch
/config,noeldb,1     ! force off writing results to database
*get,_wallstrt,active,,time,wall
! ANSYS input file written by Workbench version 2025 R1
! File used for geometry attach: D:\ARM_Reports\Tutorial-1c_11202024155553\TBSolves\WB_rroos_208240_2\wbnew_files\dp0\global\MECH\SYS-1.pmdb
/title,wbnew--Static Structural (D5)
! ****** Begin Custom Load Command Snippet ******
/COM, ACT Extensions:
/COM,     LSDYNA, 2025.1
/COM,     5f463412-bd3e-484b-87e7-cbc0a665e474, wbex
/COM,/COM,     ANSYSMotion, 2025.1
/COM,     20180725-3f81-49eb-9f31-41364844c769, wbex
/COM,
! ****** End   Custom Load Command Snippet ******
*DIM,_wb_ProjectScratch_dir,string,248
_wb_ProjectScratch_dir(1) = 'D:\ARM_Reports\Tutorial-1c_11202024155553\TBSolves\WB_rroos_208240_2\wbnew_files\dp0\SYS-3\MECH\'
*DIM,_wb_SolverFiles_dir,string,248
_wb_SolverFiles_dir(1) = 'D:\ARM_Reports\Tutorial-1c_11202024155553\TBSolves\WB_rroos_208240_2\wbnew_files\dp0\SYS-3\MECH\'
*DIM,_wb_userfiles_dir,string,248
_wb_userfiles_dir(1) = 'D:\ARM_Reports\Tutorial-1c_11202024155553\TBSolves\WB_rroos_208240_2\wbnew_files\user_files\'
/com,--- Data in consistent MKS units. See Solving Units in the help system for more information.
/units,MKS
/nopr
/wb,file,start              !  signify a WB generated input file
/prep7
! Turn off shape checking because checks already performed inside WB mesher.
! See help system for more information.
SHPP,OFF,,NOWARN
/nolist
etcon,set             ! allow ANSYS to choose best KEYOP's for 180x elements, resets any applicable keyopt to MAPDL defaults
/com,*********** Nodes for the whole assembly ***********
nblock,3,,485
(1i9,3e20.9e3)
        1     0.000000000E+00     0.000000000E+00     1.000000000E-02
        2     1.000000000E-02     0.000000000E+00     1.000000000E-02
        3     0.000000000E+00     0.000000000E+00     0.000000000E+00
        4     1.000000000E-02     0.000000000E+00     0.000000000E+00
        5     5.000000000E-04     0.000000000E+00     1.000000000E-02
        6     1.000000000E-03     0.000000000E+00     1.000000000E-02
        7     1.500000000E-03     0.000000000E+00     1.000000000E-02
        8     2.000000000E-03     0.000000000E+00     1.000000000E-02
        9     2.500000000E-03     0.000000000E+00     1.000000000E-02
       10     3.000000000E-03     0.000000000E+00     1.000000000E-02
       11     3.500000000E-03     0.000000000E+00     1.000000000E-02
       12     4.000000000E-03     0.000000000E+00     1.000000000E-02
       13     4.500000000E-03     0.000000000E+00     1.000000000E-02
       14     5.000000000E-03     0.000000000E+00     1.000000000E-02
       15     5.500000000E-03     0.000000000E+00     1.000000000E-02
       16     6.000000000E-03     0.000000000E+00     1.000000000E-02
       17     6.500000000E-03     0.000000000E+00     1.000000000E-02
       18     7.000000000E-03     0.000000000E+00     1.000000000E-02
       19     7.500000000E-03     0.000000000E+00     1.000000000E-02
       20     8.000000000E-03     0.000000000E+00     1.000000000E-02
! ... 422 like lines cut
/wb,elem,start            !  set before creation of elements
/com,*********** Elements for Body 1 'Surface Body 1' ***********
et,1,181
keyo,1,1,0          ! bending and membrane stiffness
keyo,1,3,2
eblock,19,solid,,400
(19i9)
        1        1        1        1        0        0        0        0        4        0        1       88       83       81       84
        1        1        1        1        0        0        0        0        4        0        2       83       87       82       81
        1        1        1        1        0        0        0        0        4        0        3       82       86       85       81
        1        1        1        1        0        0        0        0        4        0        4       85       89       84       81
        1        1        1        1        0        0        0        0        4        0        5       82      415       90       86
        1        1        1        1        0        0        0        0        4        0        6       87       92      415       82
        1        1        1        1        0        0        0        0        4        0        7       83      371       91       87
        1        1        1        1        0        0        0        0        4        0        8       88       94      371       83
        1        1        1        1        0        0        0        0        4        0        9       84      433       93       88
        1        1        1        1        0        0        0        0        4        0       10       89       96      433       84
        1        1        1        1        0        0        0        0        4        0       11       86      375      391       85
        1        1        1        1        0        0        0        0        4        0       12      391       95       89       85
        1        1        1        1        0        0        0        0        4        0       13       90       97      375       86
        1        1        1        1        0        0        0        0        4        0       14       91       98       92       87
        1        1        1        1        0        0        0        0        4        0       15       93       99       94       88
        1        1        1        1        0        0        0        0        4        0       16       95      100       96       89
        1        1        1        1        0        0        0        0        4        0       17      415      103      102       90
        1        1        1        1        0        0        0        0        4        0       18       90      102      418       97
        1        1        1        1        0        0        0        0        4        0       19      371      381      106       91
        1        1        1        1        0        0        0        0        4        0       20       91      106      416       98
! ... 381 like lines cut
! Material Id = {D1252BFA-F7B9-44F4-BB6E-8C6AEDFEFE01}
/wb,elem,end               !  done creating elements
/com,*********** Send User Defined Coordinate System(s) ***********
csys,0
toffst,273.15,      ! Temperature offset from absolute zero
/com,*********** Set Reference Temperature ***********
tref,22.
/wb,mat,start              !  starting to send materials
/com,*********** Send Materials ***********
Temperature = 'TEMP' ! Temperature
MP,DENS,1,7850,	! kg m^-3
MP,ALPX,1,1.2e-05,	! C^-1
MP,C,1,434,	! J kg^-1 C^-1
MP,KXX,1,60.5,	! W m^-1 C^-1
MP,RSVX,1,1.7e-07,	! kg m^3 A^-2 s^-3
MP,EX,1,200000000000,	! Pa
MP,NUXY,1,0.3,
MP,MURX,1,10000,
MP,UVID,1,2f6d0c0d-e9a3-4779-92e5-bea5c0e4f849
MP,UMID,1,59002a79-71c2-428e-906b-55d7dbee100e

/wb,mat,end                !  done sending materials
/com,*********** Send Sheet Properties ***********
sectype,1,shell
secdata,1.e-003
secoff,mid

!************************* Model Summary ********************
!Surface Body 1,	Structural Steel,	matid,	1
!************************* End Model Summary ********************
! get the diagonal of the bounding box. Needed later for other things
*get,_xmin,node,,mnloc,x
*get,_ymin,node,,mnloc,y
*get,_zmin,node,,mnloc,z
*get,_xmax,node,,mxloc,x
*get,_ymax,node,,mxloc,y
*get,_zmax,node,,mxloc,z
_ASMDIAG=(_xmax-_xmin)*(_xmax-_xmin)+(_ymax-_ymin)*(_ymax-_ymin)+(_zmax-_zmin)*(_zmax-_zmin)
_ASMDIAG=SQRT(_ASMDIAG)
/wb,contact,start          !  starting to send contact
/wb,contact,end            !  done creating contacts
/golist
/wb,load,start             !  starting to send loads
/com,*********** Fixed Supports ***********
CMBLOCK,_FIXEDSU,NODE,       21
(8i10)
         1         3        24        25        26        27        28        29
        30        31        32        33        34        35        36        37
        38        39        40        41        42
cmsel,s,_FIXEDSU
d,all,all
nsel,all
/com,*********** Define Force Using Surface Effect Elements ***********
local,12,0,0.,0.,0.,0.,0.,0.
csys,0
et,2,156
keyop,2,5,1         !  No orientation node
eblock,10,,,20
(15i9)
      401        2        2        2       12       61        4
      402        2        2        2       12       60       61
      403        2        2        2       12       59       60
      404        2        2        2       12       58       59
      405        2        2        2       12       57       58
      406        2        2        2       12       56       57
      407        2        2        2       12       55       56
      408        2        2        2       12       54       55
      409        2        2        2       12       53       54
      410        2        2        2       12       52       53
      411        2        2        2       12       51       52
      412        2        2        2       12       50       51
      413        2        2        2       12       49       50
      414        2        2        2       12       48       49
      415        2        2        2       12       47       48
      416        2        2        2       12       46       47
      417        2        2        2       12       45       46
      418        2        2        2       12       44       45
      419        2        2        2       12       43       44
      420        2        2        2       12        2       43
-1
esel,s,type,,2
keyop,2,2,1         ! Apply load in local coordinate system
keyop,2,7,1         ! Use original area so load is constant in large deformation
esel,all
/gst,on,on
fini
*get,_numnode,node,0,count
*get,_numelem,elem,0,count
*get, _MAXELEMNUM, elem, 0, NUM, MAX
*get, _MAXNODENUM, node, 0, NUM, MAX
*get, _MAXELEMTYPE, etyp, 0, NUM, MAX
*get, _MAXREALCONST, rcon, 0, NUM, MAX
/go
/wb,load,end               !  done creating loads
/com,--- Number of total nodes = %_numnode%
/com,--- Number of contact elements = 20
/com,--- Number of spring elements = 0
/com,--- Number of bearing elements = 0
/com,--- Number of solid elements = 400
/com,--- Number of condensed parts = 0
/com,--- Number of total elements = %_numelem%
*get,_wallbsol,active,,time,wall
/com,****************************************************************************
/com,*************************    SOLUTION       ********************************
/com,****************************************************************************
/solu
antype,0                   ! static analysis
_thickRatio=  0     ! Ratio of thick parts in the model
eqsl,sparse,,,,,1
cntr,print,1               ! print out contact info and also make no initial contact an error
cncheck,dmp		!	Enable program controlled contact splitting for distributed memory parallel run
dmpoption,emat,no             ! Don't combine emat file for DANSYS
dmpoption,esav,no             ! Don't combine esav file for DANSYS
nldiag,cont,iter           ! print out contact info each equilibrium iteration
rescontrol,,none                 ! Do not keep any restart files
/com,****************************************************
/com,******************* SOLVE FOR LS 1 OF 1 ****************
esel,s,type,,2
nsle
sfe,all,1,pres,1,-1000.
sfe,all,2,pres,1,0.
sfe,all,3,pres,1,0.
nsel,all
esel,all
/nopr
/gopr
nsub,1,1,1
time,1.
outres,erase
outres,all,none
outres,nsol,all,
outres,rsol,all
outres,eangl,all
outres,etmp,all
outres,veng,all
outres,strs,all,
outres,epel,all,
outres,eppl,all,
outres,cont,all,
! *********** WB SOLVE COMMAND ***********
! check interactive state
*get,ANSINTER_,active,,int
*if,ANSINTER_,ne,0,then
/eof
*endif
solve
/com *************** Write FE CONNECTORS ********* 
CEWRITE,file,ce,,INTE
/com,****************************************************
/com,*************** FINISHED SOLVE FOR LS 1 *************
*get,_wallasol,active,,time,wall
/nopr
*get,_numnode,node,0,count
*get,_numelem,elem,0,count
*get, _MAXELEMNUM, elem, 0, NUM, MAX
*get, _MAXNODENUM, node, 0, NUM, MAX,,,INTERNAL
*get, _MAXELEMTYPE, etyp, 0, NUM, MAX
*get, _MAXREALCONST, rcon, 0, NUM, MAX
*get,_NSOLTHREADS,active,0,ntfs
*get,_NSOLPROCESSES,active,0,npfs
/gopr
/post1
xmlo,ENCODING,ISO-8859-1
xmlo,parm
/xml,parm,xml
fini
/gopr
*get,_walldone,active,,time,wall
_preptime=(_wallbsol-_wallstrt)*3600
_solvtime=(_wallasol-_wallbsol)*3600
_posttime=(_walldone-_wallasol)*3600
_totaltim=(_walldone-_wallstrt)*3600
*get,_dlbratio,active,0,solu,dlbr
*get,_combtime,active,0,solu,comb
*get,_ssmode,active,0,solu,ssmm
*get,_ndofs,active,0,solu,ndof
*get,_sol_end_time,active,0,set,time
*if,_sol_end_time,eq,1.000000,then
/fclean				!clean distributed files
*endif
/com,--- Total number of nodes = %_numnode%
/com,--- Total number of elements = %_numelem%
/com,--- Element load balance ratio = %_dlbratio%
/com,--- Time to combine distributed files = %_combtime%
/com,--- Sparse memory mode = %_ssmode%
/com,--- Number of DOF = %_ndofs%
/wb,file,end               ! done with WB generated input
