/batch
/config,noeldb,1     ! force off writing results to database
*get,_wallstrt,active,,time,wall
! ANSYS input file written by Workbench version 2024 R2
! File used for geometry attach: D:\ARM_Reports\ACP_IMP_LAY_SEC_037_01102024082855\TBSolves\WB_jvonrick_50936_2\wbnew_files\dp0\SYS\DM\SYS.scdoc
/title,wbnew--Static Structural (A5)
! ****** Begin Custom Load Command Snippet ******
/COM, ACT Extensions:
/COM,     LSDYNA, 2024.1
/COM,     5f463412-bd3e-484b-87e7-cbc0a665e474, wbex
/COM,/COM,     ANSYSMotion, 2024.2
/COM,     20180725-3f81-49eb-9f31-41364844c769, wbex
/COM,
! ****** End   Custom Load Command Snippet ******
*DIM,_wb_ProjectScratch_dir,string,248
_wb_ProjectScratch_dir(1) = 'D:\ARM_Reports\ACP_IMP_LAY_SEC_037_01102024082855\TBSolves\WB_jvonrick_50936_2\wbnew_files\dp0\SYS\MECH\'
*DIM,_wb_SolverFiles_dir,string,248
_wb_SolverFiles_dir(1) = 'D:\ARM_Reports\ACP_IMP_LAY_SEC_037_01102024082855\TBSolves\WB_jvonrick_50936_2\wbnew_files\dp0\SYS\MECH\'
*DIM,_wb_userfiles_dir,string,248
_wb_userfiles_dir(1) = 'D:\ARM_Reports\ACP_IMP_LAY_SEC_037_01102024082855\TBSolves\WB_jvonrick_50936_2\wbnew_files\user_files\'
/com,--- Data in consistent MKS units. See Solving Units in the help system for more information.
/units,MKS
/nopr
/wb,file,start              !  signify a WB generated input file
/prep7
! Turn off shape checking because checks already performed inside WB mesher.
! See help system for more information.
SHPP,OFF,,NOWARN
/nolist
etcon,set             ! allow ANSYS to choose best KEYOP's for 180x elements, resets any applicable keyopt to MAPDL defaults
/com,*********** Nodes for the whole assembly ***********
nblock,3,,89
(1i9,3e20.9e3)
        1     1.000000000E-02     0.000000000E+00     0.000000000E+00
        2     0.000000000E+00     0.000000000E+00     0.000000000E+00
        3     1.000000000E-02     0.000000000E+00     1.000000000E-02
        4     0.000000000E+00     0.000000000E+00     1.000000000E-02
        5     8.750000000E-03     0.000000000E+00     0.000000000E+00
        6     7.500000000E-03     0.000000000E+00     0.000000000E+00
        7     6.250000000E-03     0.000000000E+00     0.000000000E+00
        8     5.000000000E-03     0.000000000E+00     0.000000000E+00
        9     3.750000000E-03     0.000000000E+00     0.000000000E+00
       10     2.500000000E-03     0.000000000E+00     0.000000000E+00
       11     1.250000000E-03     0.000000000E+00     0.000000000E+00
       12     1.000000000E-02     0.000000000E+00     1.250000000E-03
       13     1.000000000E-02     0.000000000E+00     2.500000000E-03
       14     1.000000000E-02     0.000000000E+00     3.750000000E-03
       15     1.000000000E-02     0.000000000E+00     5.000000000E-03
       16     1.000000000E-02     0.000000000E+00     6.250000000E-03
       17     1.000000000E-02     0.000000000E+00     7.500000000E-03
       18     1.000000000E-02     0.000000000E+00     8.750000000E-03
       19     0.000000000E+00     0.000000000E+00     1.250000000E-03
       20     0.000000000E+00     0.000000000E+00     2.500000000E-03
! ... 61 like lines cut
/wb,elem,start            !  set before creation of elements
/com,*********** Elements for Body 1 "SYS\Surface" ***********
et,1,181
keyo,1,1,0       ! bending and membrane stiffness
keyo,1,3,2
eblock,19,solid,,64
(19i9)
        1        1        1        1        0        0        0        0        4        0        1       38       34       81       35
        1        1        1        1        0        0        0        0        4        0        2       34       37       33       81
        1        1        1        1        0        0        0        0        4        0        3       33       36       74       81
        1        1        1        1        0        0        0        0        4        0        4       74       39       35       81
        1        1        1        1        0        0        0        0        4        0        5       33       41       40       36
        1        1        1        1        0        0        0        0        4        0        6       37       42       41       33
        1        1        1        1        0        0        0        0        4        0        7       34       72       80       37
        1        1        1        1        0        0        0        0        4        0        8       38       43       72       34
        1        1        1        1        0        0        0        0        4        0        9       35       73       78       38
        1        1        1        1        0        0        0        0        4        0       10       39       79       73       35
        1        1        1        1        0        0        0        0        4        0       11       36       45       77       74
        1        1        1        1        0        0        0        0        4        0       12       77       44       39       74
        1        1        1        1        0        0        0        0        4        0       13       40       46       45       36
        1        1        1        1        0        0        0        0        4        0       14       80       76       42       37
        1        1        1        1        0        0        0        0        4        0       15       78       75       43       38
        1        1        1        1        0        0        0        0        4        0       16       44       47       79       39
        1        1        1        1        0        0        0        0        4        0       17       41       50       49       40
        1        1        1        1        0        0        0        0        4        0       18       40       49       48       46
        1        1        1        1        0        0        0        0        4        0       19       72       56       55       80
        1        1        1        1        0        0        0        0        4        0       20       80       55       54       76
! ... 45 like lines cut
! Material Id = {48F2525D-3BC6-418F-B3E5-DA0B8A1CE391}
/wb,elem,end               !  done creating elements
/com,*********** Send User Defined Coordinate System(s) ***********
csys,0
toffst,273.15,  ! Temperature offset from absolute zero
/com,*********** Set Reference Temperature ***********
tref,22.
/wb,mat,start              !  starting to send materials
/com,*********** Send Materials ***********
Temperature = 'TEMP' ! Temperature
MP,DENS,1,7850,	! kg m^-3
MP,ALPX,1,1.2e-05,	! C^-1
MP,C,1,434,	! J kg^-1 C^-1
MP,KXX,1,60.5,	! W m^-1 C^-1
MP,RSVX,1,1.7e-07,	! kg m^3 A^-2 s^-3
MP,EX,1,200000000000,	! Pa
MP,NUXY,1,0.3,
MP,MURX,1,10000,
!MP,UVID,1,6a302e30-541f-4c0a-9614-5d4f9dd007b5
MP,UMID,1,59002a79-71c2-428e-906b-55d7dbee100e

/wb,mat,end                !  done sending materials
/com,*********** Send Sheet Properties ***********
sectype,1,shell
secdata,1.e-003
secoff,mid

!************************* Model Summary ********************
!SYS\Surface,	Structural Steel,	matid,	1
!************************* End Model Summary ********************
! get the diagonal of the bounding box. Needed later for other things
*get,_xmin,node,,mnloc,x
*get,_ymin,node,,mnloc,y
*get,_zmin,node,,mnloc,z
*get,_xmax,node,,mxloc,x
*get,_ymax,node,,mxloc,y
*get,_zmax,node,,mxloc,z
_ASMDIAG=(_xmax-_xmin)*(_xmax-_xmin)+(_ymax-_ymin)*(_ymax-_ymin)+(_zmax-_zmin)*(_zmax-_zmin)
_ASMDIAG=SQRT(_ASMDIAG)
/wb,contact,start          !  starting to send contact
/wb,contact,end            !  done creating contacts
/golist
/wb,load,start             !  starting to send loads
/com,*********** Fixed Supports ***********
CMBLOCK,_FIXEDSU,NODE,        9
(8i10)
         2         4        19        20        21        22        23        24
        25
cmsel,s,_FIXEDSU
d,all,all
nsel,all
/com,*********** Define Force Using Surface Effect Elements ***********
local,12,0,0.,0.,0.,0.,0.,0.
csys,0
et,2,156
mat,2
keyop,2,5,1         !  No orientation node
eblock,10,,,8
(15i9)
       65        2        2        2       12       12        1
       66        2        2        2       12       13       12
       67        2        2        2       12       14       13
       68        2        2        2       12       15       14
       69        2        2        2       12       16       15
       70        2        2        2       12       17       16
       71        2        2        2       12       18       17
       72        2        2        2       12        3       18
-1
esel,s,type,,2
keyop,2,2,1                ! Apply load in local coordinate system
keyop,2,7,1                ! Use original area so load is constant in large deformation
esel,all
/gst,on,on
fini
*get,_numnode,node,0,count
*get,_numelem,elem,0,count
*get, _MAXELEMNUM, elem, 0, NUM, MAX
*get, _MAXNODENUM, node, 0, NUM, MAX
*get, _MAXELEMTYPE, etyp, 0, NUM, MAX
*get, _MAXREALCONST, rcon, 0, NUM, MAX
/go
/wb,load,end               !  done creating loads
/com,--- Number of total nodes = %_numnode%
/com,--- Number of contact elements = 8
/com,--- Number of spring elements = 0
/com,--- Number of bearing elements = 0
/com,--- Number of solid elements = 64
/com,--- Number of condensed parts = 0
/com,--- Number of total elements = %_numelem%
*get,_wallbsol,active,,time,wall
/com,****************************************************************************
/com,*************************    SOLUTION       ********************************
/com,****************************************************************************
/solu
antype,0                   ! static analysis
_thickRatio=  0     ! Ratio of thick parts in the model
eqsl,sparse,,,,,1
cntr,print,1               ! print out contact info and also make no initial contact an error
cncheck,dmp		!	Enable program controlled contact splitting for distributed memory parallel run
dmpoption,emat,no             ! Don't combine emat file for DANSYS
dmpoption,esav,no             ! Don't combine esav file for DANSYS
nldiag,cont,iter           ! print out contact info each equilibrium iteration
rescontrol,,none                 ! Do not keep any restart files
/com,****************************************************
/com,******************* SOLVE FOR LS 1 OF 1 ****************
esel,s,type,,2
nsle
sfe,all,1,pres,1,0.
sfe,all,2,pres,1,-10000.
sfe,all,3,pres,1,0.
nsel,all
esel,all
/nopr
/gopr
nsub,1,1,1
time,1.
outres,erase
outres,all,none
outres,nsol,all,
outres,rsol,all
outres,eangl,all
outres,etmp,all
outres,veng,all
outres,strs,all,
outres,epel,all,
outres,eppl,all,
outres,cont,all,
! *********** WB SOLVE COMMAND ***********
! check interactive state
*get,ANSINTER_,active,,int
*if,ANSINTER_,ne,0,then
/eof
*endif
solve
/com *************** Write FE CONNECTORS ********* 
CEWRITE,file,ce,,INTE
/com,****************************************************
/com,*************** FINISHED SOLVE FOR LS 1 *************
*get,_wallasol,active,,time,wall
/nopr
*get,_numnode,node,0,count
*get,_numelem,elem,0,count
*get, _MAXELEMNUM, elem, 0, NUM, MAX
*get, _MAXNODENUM, node, 0, NUM, MAX,,,INTERNAL
*get, _MAXELEMTYPE, etyp, 0, NUM, MAX
*get, _MAXREALCONST, rcon, 0, NUM, MAX
*get,_NSOLTHREADS,active,0,ntfs
*get,_NSOLPROCESSES,active,0,npfs
/gopr
/post1
xmlo,ENCODING,ISO-8859-1
xmlo,parm
/xml,parm,xml
fini
/gopr
*get,_walldone,active,,time,wall
_preptime=(_wallbsol-_wallstrt)*3600
_solvtime=(_wallasol-_wallbsol)*3600
_posttime=(_walldone-_wallasol)*3600
_totaltim=(_walldone-_wallstrt)*3600
*get,_dlbratio,active,0,solu,dlbr
*get,_combtime,active,0,solu,comb
*get,_ssmode,active,0,solu,ssmm
*get,_ndofs,active,0,solu,ndof
*get,_sol_end_time,active,0,set,time
*if,_sol_end_time,eq,1.000000,then
/fclean				!clean distributed files
*endif
/com,--- Total number of nodes = %_numnode%
/com,--- Total number of elements = %_numelem%
/com,--- Element load balance ratio = %_dlbratio%
/com,--- Time to combine distributed files = %_combtime%
/com,--- Sparse memory mode = %_ssmode%
/com,--- Number of DOF = %_ndofs%
/wb,file,end               ! done with WB generated input
