/batch
/config,noeldb,1     ! force off writing results to database
*get,_wallstrt,active,,time,wall
! ANSYS input file written by Workbench version 2019 R2
! File used for geometry attach: C:\Users\ochernuk\AppData\Local\Temp\noSysC.tmp\noSysC_files\dp0\SYS\DM\SYS.agdb
/title,noSysC--Transient (A5)
*DIM,_wb_ProjectScratch_dir,string,248
_wb_ProjectScratch_dir(1) = 'C:\Users\ochernuk\AppData\Local\Temp\noSysC.tmp\noSysC_files\dp0\SYS\MECH\'
*DIM,_wb_SolverFiles_dir,string,248
_wb_SolverFiles_dir(1) = 'C:\Users\ochernuk\AppData\Local\Temp\noSysC.tmp\noSysC_files\dp0\SYS\MECH\'
*DIM,_wb_userfiles_dir,string,248
_wb_userfiles_dir(1) = 'C:\Users\ochernuk\AppData\Local\Temp\noSysC.tmp\noSysC_files\user_files\'
/com,--- Data in consistent MKS units. See Solving Units in the help system for more information.
/units,MKS
/nopr
/wb,file,start              !  signify a WB generated input file
/prep7
! Turn off shape checking because checks already performed inside WB mesher.
! See help system for more information.
SHPP,OFF,,NOWARN
/nolist
etcon,set             ! allow ANSYS to choose best KEYOP's for 180x elements
/com,*********** Nodes for the whole assembly ***********
nblock,3,,388
(1i9,3e20.9e3)
        1     1.006000000E+01     1.000000000E-01     1.000000000E-01
        2     1.006000000E+01     2.000000000E-01     1.000000000E-01
        3     1.006000000E+01     3.000000000E-01     1.000000000E-01
        4     1.006000000E+01     4.000000000E-01     1.000000000E-01
        5     1.006000000E+01     5.000000000E-01     1.000000000E-01
        6     1.006000000E+01     6.000000000E-01     1.000000000E-01
        7     1.006000000E+01     7.000000000E-01     1.000000000E-01
        8     1.006000000E+01     8.000000000E-01     1.000000000E-01
        9     1.006000000E+01     9.000000000E-01     1.000000000E-01
       10     1.006000000E+01     1.000000000E-01     2.000000000E-01
       11     1.006000000E+01     2.000000000E-01     2.000000000E-01
       12     1.006000000E+01     3.000000000E-01     2.000000000E-01
       13     1.006000000E+01     4.000000000E-01     2.000000000E-01
       14     1.006000000E+01     5.000000000E-01     2.000000000E-01
       15     1.006000000E+01     6.000000000E-01     2.000000000E-01
       16     1.006000000E+01     7.000000000E-01     2.000000000E-01
       17     1.006000000E+01     8.000000000E-01     2.000000000E-01
       18     1.006000000E+01     9.000000000E-01     2.000000000E-01
       19     1.006000000E+01     1.000000000E-01     3.000000000E-01
       20     1.006000000E+01     2.000000000E-01     3.000000000E-01
! ... 334 like lines cut
/wb,elem,start            !  set before creation of elements
/com,*********** Elements for Body 1 "solid" ***********
et,1,186
keyo,1,2,1          ! set full integration on SOLID186
eblock,19,solid,,40
(19i9)
        1        1        1        1        0        0        0        0       20        0        1       27       88       97      108       28       69       68       57
      202      333      341      203      207      297      275      206      201      300      298      276
        1        1        1        1        0        0        0        0       20        0        2       18       27      108      109       37       28       57       56
      173      203      352      175      205      206      273      234      174      201      276      274
        1        1        1        1        0        0        0        0       20        0        3        9       18      109      110       46       37       56       55
      144      175      353      147      233      234      270      252      145      174      274      272
        1        1        1        1        0        0        0        0       20        0        4        9      110      107       98       46       55       58       59
      147      351      343      146      252      271      277      253      145      272      278      280
        1        1        1        1        0        0        0        0       20        0        5       26       89       88       27       29       70       69       28
      200      332      202      198      210      299      207      204      199      302      300      201
        1        1        1        1        0        0        0        0       20        0        6       17       26       27       18       38       29       28       37
      171      198      173      170      209      204      205      232      172      199      201      174
        1        1        1        1        0        0        0        0       20        0        7        8       17       18        9       47       38       37       46
      141      170      144      140      236      232      233      251      142      172      174      145
        1        1        1        1        0        0        0        0       20        0        8        8        9       98       99       47       46       59       60
      140      146      342      143      251      253      279      255      142      145      280      282
        1        1        1        1        0        0        0        0       20        0        9       25       90       89       26       30       71       70       29
      197      334      200      195      213      301      210      208      196      304      302      199
        1        1        1        1        0        0        0        0       20        0       10       16       25       26       17       39       30       29       38
      168      195      171      167      212      208      209      235      169      196      199      172
! ... 61 like lines cut
!Material Id = {A07F8751-7493-4678-A1AB-CCDBE4BA2D1B}
/wb,elem,end               !  done creating elements
/com,*********** Send User Defined Coordinate System(s) ***********
csys,0
toffst,273.15,  ! Temperature offset from absolute zero
/com,*********** Set Reference Temperature ***********
tref,22.
/wb,mat,start              !  starting to send materials
/com,*********** Send Materials ***********
MP,DENS,1,2550,	! kg m^-3
MP,EX,1,2500000,	! Pa
MP,NUXY,1,0.35,

/wb,mat,end                !  done sending materials
!************************* Model Summary ********************
!solid,	Plate,	matid,	1
!************************* End Model Summary ********************
! get the diagonal of the bounding box. Needed later for other things
*get,_xmin,node,,mnloc,x
*get,_ymin,node,,mnloc,y
*get,_zmin,node,,mnloc,z
*get,_xmax,node,,mxloc,x
*get,_ymax,node,,mxloc,y
*get,_zmax,node,,mxloc,z
_ASMDIAG=(_xmax-_xmin)*(_xmax-_xmin)+(_ymax-_ymin)*(_ymax-_ymin)+(_zmax-_zmin)*(_zmax-_zmin)
_ASMDIAG=SQRT(_ASMDIAG)
/wb,contact,start          !  starting to send contact
/wb,contact,end            !  done creating contacts
/golist
/wb,load,start             !  starting to send loads
/com,*********** Fixed Supports ***********
CMBLOCK,_FIXEDSU,NODE,       23
(8i10)
        78        79        80        81        82        83        84        85
        86        87       317       318       319       320       321       322
       323       324       325       326       327       328       329
cmsel,s,_FIXEDSU
d,all,all
nsel,all
/com,*********** Define Pressure Using Surface Effect Elements ***********
et,2,154
eblock,10,,,40
(15i9)
      149        2        2        2        0       88       27      108       97      202      203      341      333
      150        2        2        2        0       27       18      109      108      173      175      352      203
      151        2        2        2        0       18        9      110      109      144      147      353      175
      152        2        2        2        0        9       98      107      110      146      343      351      147
      153        2        2        2        0       89       26       27       88      200      198      202      332
      154        2        2        2        0       26       17       18       27      171      170      173      198
      155        2        2        2        0       17        8        9       18      141      140      144      170
      156        2        2        2        0        8       99       98        9      143      342      146      140
      157        2        2        2        0       90       25       26       89      197      195      200      334
      158        2        2        2        0       25       16       17       26      168      167      171      195
      159        2        2        2        0       16        7        8       17      137      136      141      167
      160        2        2        2        0        7      100       99        8      139      344      143      136
      161        2        2        2        0       91       24       25       90      194      192      197      335
      162        2        2        2        0       24       15       16       25      165      164      168      192
      163        2        2        2        0       15        6        7       16      133      132      137      164
      164        2        2        2        0        6      101      100        7      135      345      139      132
      165        2        2        2        0       92       23       24       91      191      189      194      336
      166        2        2        2        0       23       14       15       24      162      161      165      189
      167        2        2        2        0       14        5        6       15      129      128      133      161
      168        2        2        2        0        5      102      101        6      131      346      135      128
! ... 21 like lines cut
esel,s,type,,2
esel,all

*DIM,_loadvari78,TABLE,4,1,1,TIME,
! Time values
_loadvari78(1,0,1) = 0.
_loadvari78(2,0,1) = 0.5
_loadvari78(3,0,1) = 0.51
_loadvari78(4,0,1) = 10.
! Load values
_loadvari78(1,1,1) = 100.
_loadvari78(2,1,1) = 100.
_loadvari78(3,1,1) = 0.
_loadvari78(4,1,1) = 0.

/com,*********** Create FSI Flags ***********
CMBLOCK,FSIN_1  ,NODE,      303
(8i10)
         1         2         3         4         5         6         7         8
         9        10        11        12        13        14        15        16
        17        18        19        20        21        22        23        24
        25        26        27        28        29        30        31        32
        33        34        35        36        37        38        39        40
        41        42        43        44        45        46        47        48
        49        50        51        52        53        54        55        56
        57        58        59        60        61        62        63        64
        65        66        67        68        69        70        71        72
        73        74        75        76        77        78        79        80
        81        82        83        84        85        86        87        88
        89        90        91        92        93        94        95        96
        97        98        99       100       101       102       103       104
       105       106       107       108       109       110       111       112
       114       115       116       117       119       120       121       123
       124       125       127       128       129       131       132       133
       135       136       137       139       140       141       143       144
       146       147       148       149       151       152       153       155
       156       158       159       161       162       164       165       167
       168       170       171       173       175       176       178       179
! ... 18 like lines cut
SF,FSIN_1,FSIN,1
nsel,all
esel,all
/gst,on,on
fini
*get,_numnode,node,0,count
*get,_numelem,elem,0,count
*get, _MAXELEMNUM, elem, 0, NUM, MAX
*get, _MAXNODENUM, node, 0, NUM, MAX
*get, _MAXELEMTYPE, etyp, 0, NUM, MAX
*get, _MAXREALCONST, real, 0, NUM, MAX
/go
/wb,load,end               !  done creating loads
/com,--- Number of total nodes = %_numnode%
/com,--- Number of contact elements = 40
/com,--- Number of spring elements = 0
/com,--- Number of bearing elements = 0
/com,--- Number of solid elements = 40
/com,--- Number of condensed parts = 0
/com,--- Number of total elements = %_numelem%
*get,_wallbsol,active,,time,wall
/com,****************************************************************************
/com,*************************    SOLUTION       ********************************
/com,****************************************************************************
/solu
antype,4                   ! transient analysis
nlgeom,on                  ! Turn on Large Deformation Effects
kbc,1                      ! stepped BC's
eqsl,sparse,,,,,1
cntr,print,1               ! print out contact info and also make no initial contact an error
rstsuppress,none           ! don't suppress anything due to presense of FSI loading
dmpoption,emat,no             ! Don't combine emat file for DANSYS
dmpoption,esav,no             ! Don't combine esav file for DANSYS
cmwrite                    ! Export components due to presence of FSI loading
trnopt,full,,,,,hht        ! HHT time integration method
tintp,0.1 ! Numerical Damping
nldiag,cont,iter           ! print out contact info each equilibrium iteration
rescontrol,define,last,last,,dele	   ! Program Controlled
/com,****************************************************
/com,******************* SOLVE FOR LS 1 OF 1 ****************
esel,s,type,,2
nsle
sf,all,pres,%_loadvari78%
nsel,all
esel,all
esel,all
/nopr
/gopr
autots,off                 ! User turned off automatic time stepping
nsub,1,1,1
time,10.
timint,on                  ! Turn on time integration effects
outres,erase
outres,all,none
outres,nsol,all,
outres,rsol,all
outres,strs,all,
outres,eangl,all
outres,fmag,all
outres,nldat,all
outres,eheat,all
outres,etmp,all
outres,cont,all
outres,veng,all
outres,srfs,all,
outres,bkstr,all,
outres,epel,all,
outres,eppl,all,
outres,v,all,
outres,a,all,
stabilize,off                   ! Stabilization turned OFF by user
! *********** WB SOLVE COMMAND ***********
! check interactive state
*get,ANSINTER_,active,,int
*if,ANSINTER_,ne,0,then
/eof
*endif
solve
/com *************** Write FE CONNECTORS ********* 
CEWRITE,file,ce,,INTE
/com,****************************************************
/com,*************** FINISHED SOLVE FOR LS 1 *************
*get,_wallasol,active,,time,wall
/nopr
*get,_numnode,node,0,count
*get,_numelem,elem,0,count
*get, _MAXELEMNUM, elem, 0, NUM, MAX
*get, _MAXNODENUM, node, 0, NUM, MAX,,,INTERNAL
*get, _MAXELEMTYPE, etyp, 0, NUM, MAX
*get, _MAXREALCONST, real, 0, NUM, MAX
/gopr
/post1
xmlo,ENCODING,ISO-8859-1
xmlo,parm
/xml,parm,xml
fini
/gopr
*get,_walldone,active,,time,wall
_preptime=(_wallbsol-_wallstrt)*3600
_solvtime=(_wallasol-_wallbsol)*3600
_posttime=(_walldone-_wallasol)*3600
_totaltim=(_walldone-_wallstrt)*3600
*get,_dlbratio,active,0,solu,dlbr
/com,--- Number of total nodes = %_numnode%
/com,--- Number of total elements = %_numelem%
/com,--- Element load balance ratio = %_dlbratio%
/wb,file,end               ! done with WB generated input
