*KEYWORD
$> 
$
$
$
$ ====================
$ MAT (Material) cards
$ ====================
$
*MAT_RIGID
  10000001    7.0E-9   10000.0       0.3       0.0       0.0       0.0          
       1.0       7.0       7.0
         0       0.0       0.0       0.0       0.0       0.0
$
$
$
$ =============
$ SECTION cards
$ =============
$
*SECTION_SHELL
  10000001         2       0.0         0       0.0       0.0         0         0
       1.5       1.5       1.5       1.5       0.0       0.0       0.0         0
$
$
$
$ ==========
$ PART cards
$ ==========
$
*PART
$HMNAME COMPS10000001ground
ground
  10000001  10000001  10000001         0         0         0         0         0
$
$
$
$ ==========
$ NODE cards
$ ==========
$
*NODE
10000001      -5000.0000      -1000.0000      -3.0000000       0       0
10000002      -4900.0000      -1000.0000      -3.0000000       0       0
10000003      -4800.0000      -1000.0000      -3.0000000       0       0
10000004      -4700.0000      -1000.0000      -3.0000000       0       0
10000005      -4600.0000      -1000.0000      -3.0000000       0       0
10000006      -4500.0000      -1000.0000      -3.0000000       0       0
10000007      -4400.0000      -1000.0000      -3.0000000       0       0
10000008      -4300.0000      -1000.0000      -3.0000000       0       0
10000009      -4200.0000      -1000.0000      -3.0000000       0       0
10000010      -4100.0000      -1000.0000      -3.0000000       0       0
10000011      -4000.0000      -1000.0000      -3.0000000       0       0
10000012      -3900.0000      -1000.0000      -3.0000000       0       0
10000013      -3800.0000      -1000.0000      -3.0000000       0       0
10000014      -3700.0000      -1000.0000      -3.0000000       0       0
10000015      -3600.0000      -1000.0000      -3.0000000       0       0
10000016      -3500.0000      -1000.0000      -3.0000000       0       0
10000017      -3400.0000      -1000.0000      -3.0000000       0       0
10000018      -3300.0000      -1000.0000      -3.0000000       0       0
10000019      -3200.0000      -1000.0000      -3.0000000       0       0
10000020      -3100.0000      -1000.0000      -3.0000000       0       0
$ ... 1051 like lines cut
$
$
$ =============
$ ELEMENT cards
$ =============
$
*ELEMENT_SHELL
100000011000000110000001100000021000005310000052
100000021000000110000002100000031000005410000053
100000031000000110000003100000041000005510000054
100000041000000110000004100000051000005610000055
100000051000000110000005100000061000005710000056
100000061000000110000006100000071000005810000057
100000071000000110000007100000081000005910000058
100000081000000110000008100000091000006010000059
100000091000000110000009100000101000006110000060
100000101000000110000010100000111000006210000061
100000111000000110000011100000121000006310000062
100000121000000110000012100000131000006410000063
100000131000000110000013100000141000006510000064
100000141000000110000014100000151000006610000065
100000151000000110000015100000161000006710000066
100000161000000110000016100000171000006810000067
100000171000000110000017100000181000006910000068
100000181000000110000018100000191000007010000069
100000191000000110000019100000201000007110000070
100000201000000110000020100000211000007210000071
$ ... 980 like lines cut
$
*END
