/batch
/config,noeldb,1     ! force off writing results to database
*get,_wallstrt,active,,time,wall
! ANSYS input file written by Workbench version 2024 R2
! File used for geometry attach: D:\tmp\wb_parameters_example8_files\dp0\global\MECH\SYS-4\AssembledModel\SYS-4.pmdb
/title,wb_parameters_example8--Static Structural (D3)
! ****** Begin Custom Load Command Snippet ******
/COM, ACT Extensions:
/COM,     LSDYNA, 2024.1
/COM,     5f463412-bd3e-484b-87e7-cbc0a665e474, wbex
/COM,/COM,     ANSYSMotion, 2024.2
/COM,     20180725-3f81-49eb-9f31-41364844c769, wbex
/COM,
! ****** End   Custom Load Command Snippet ******
*DIM,_wb_ProjectScratch_dir,string,248
_wb_ProjectScratch_dir(1) = 'D:\tmp\_ProjectScratch\ScrF28E\'
*DIM,_wb_SolverFiles_dir,string,248
_wb_SolverFiles_dir(1) = 'D:\tmp\wb_parameters_example8_files\dp0\SYS-4\MECH\'
*DIM,_wb_userfiles_dir,string,248
_wb_userfiles_dir(1) = 'D:\tmp\wb_parameters_example8_files\user_files\'
/com,--- Data in consistent MKS units. See Solving Units in the help system for more information.
/units,MKS
/nopr
/wb,file,start              !  signify a WB generated input file
/prep7
! Turn off shape checking because checks already performed inside WB mesher.
! See help system for more information.
SHPP,OFF,,NOWARN
/nolist
etcon,set             ! allow ANSYS to choose best KEYOP's for 180x elements, resets any applicable keyopt to MAPDL defaults
/com,*********** Nodes for the whole assembly ***********
nblock,3,,3665
(1i9,3e20.9e3)
        1     1.270000000E-01     3.048000000E-02     3.048000000E-01
        2     1.270000000E-01     9.652000000E-02     3.048000000E-01
        3     1.270000000E-01     3.048000000E-02     0.000000000E+00
        4     1.270000000E-01     9.652000000E-02     0.000000000E+00
        5     3.048000000E-02     0.000000000E+00     3.048000000E-01
        6     9.652000000E-02     0.000000000E+00     3.048000000E-01
        7     3.048000000E-02     0.000000000E+00     0.000000000E+00
        8     9.652000000E-02     0.000000000E+00     0.000000000E+00
        9     9.652000000E-02     1.270000000E-01     0.000000000E+00
       10     3.048000000E-02     1.270000000E-01     0.000000000E+00
       11     3.048000000E-02     1.270000000E-01     3.048000000E-01
       12     9.652000000E-02     1.270000000E-01     3.048000000E-01
       13     0.000000000E+00     9.652000000E-02     0.000000000E+00
       14     0.000000000E+00     3.048000000E-02     0.000000000E+00
       15     0.000000000E+00     3.048000000E-02     3.048000000E-01
       16     0.000000000E+00     9.652000000E-02     3.048000000E-01
       17     7.482835290E-04     2.376766541E-02     2.984527164E-01
       18     2.997529503E-03     1.729879310E-02     2.984525198E-01
       19     6.604907776E-03     1.153243099E-02     2.984523245E-01
       20     1.145595426E-02     6.665800797E-03     2.984521272E-01
! ... 3312 like lines cut
/com,*********** Nodes for all Remote Points ***********
nblock,3
(1i9,3e20.9e3)
     3333     6.349554967E-02     6.349554967E-02     3.048000038E-01
     3334     6.349554967E-02     6.349554967E-02     0.000000000E+00
/wb,elem,start            !  set before creation of elements
/com,*********** Elements for Body 1 "ACP-Pre\Surface Body(ACP (Pre))(Mechanical Model)" ***********
et,1,181
keyo,1,1,0          ! bending and membrane stiffness
keyo,1,3,2
eblock,19,solid,,3264
(19i9)
        1        1        1        1        0        0        0        0        4        0        1     2000     1569      358       15
        1        1        1        1        0        0        0        0        4        0        2     1999     1616     1569     2000
        1        1        1        1        0        0        0        0        4        0        3     1998     1663     1616     1999
        1        1        1        1        0        0        0        0        4        0        4     1997     1710     1663     1998
        1        1        1        1        0        0        0        0        4        0        5     1996     1757     1710     1997
        1        1        1        1        0        0        0        0        4        0        6     1995     1804     1757     1996
        1        1        1        1        0        0        0        0        4        0        7     1994     1851     1804     1995
        1        1        1        1        0        0        0        0        4        0        8     1993     1898     1851     1994
        1        1        1        1        0        0        0        0        4        0        9     1992     1945     1898     1993
        1        1        1        1        0        0        0        0        4        0       10       16     1180     1945     1992
        1        1        1        1        0        0        0        0        4        0       11     1569     1570      359      358
        1        1        1        1        0        0        0        0        4        0       12     1616     1617     1570     1569
        1        1        1        1        0        0        0        0        4        0       13     1663     1664     1617     1616
        1        1        1        1        0        0        0        0        4        0       14     1710     1711     1664     1663
        1        1        1        1        0        0        0        0        4        0       15     1757     1758     1711     1710
        1        1        1        1        0        0        0        0        4        0       16     1804     1805     1758     1757
        1        1        1        1        0        0        0        0        4        0       17     1851     1852     1805     1804
        1        1        1        1        0        0        0        0        4        0       18     1898     1899     1852     1851
        1        1        1        1        0        0        0        0        4        0       19     1945     1946     1899     1898
        1        1        1        1        0        0        0        0        4        0       20     1180     1179     1946     1945
! ... 3245 like lines cut
! Material Id = {12639CE0-1C14-4219-94D9-710E2377FEF0}
/wb,elem,end               !  done creating elements
/com,*********** Send User Defined Coordinate System(s) ***********
local,12,0,0.,0.,0.,0.,0.,0.
local,13,0,0.,0.,0.,0.,0.,0.
csys,0
toffst,273.15,      ! Temperature offset from absolute zero
/com,*********** Set Reference Temperature ***********
tref,22.
/wb,mat,start              !  starting to send materials
/com,*********** Send Materials ***********
MP,DENS,1,1420,	! kg m^-3
MP,EX,1,61340000000,	! Pa
MP,EY,1,61340000000,	! Pa
MP,EZ,1,6900000000,	! Pa
MP,PRXY,1,0.04,
MP,PRYZ,1,0.3,
MP,PRXZ,1,0.3,
MP,GXY,1,19500000000,	! Pa
MP,GYZ,1,2700000000,	! Pa
MP,GXZ,1,2700000000,	! Pa

TB,FCLI,1,1,9,2
TBDATA,1,0.0126,-0.0102,0.0126,-0.0102,0.0126,-0.0102
TBDATA,7,0.019,0.014,0.019
MP,ALPX,1,2.2e-06,	! C^-1
MP,ALPY,1,2.2e-06,	! C^-1
MP,ALPZ,1,1e-05,	! C^-1

TB,FCLI,1,1,20,1
TBDATA,1,805000000
TBDATA,2,-509000000
TBDATA,3,805000000
TBDATA,4,-509000000
TBDATA,5,50000000
TBDATA,6,-170000000
TBDATA,7,125000000
TBDATA,8,65000000
TBDATA,9,65000000
TBDATA,10,-1
TBDATA,11,-1
TBDATA,12,-1
MP,UVID,1,cda9d204-b6e3-417c-ab7c-8c9d97d933ba

/wb,mat,end                !  done sending materials
/com,*********** Send Sheet Properties ***********
sectype,1,shell
secdata,1.e-009
secoff,mid

!************************* Model Summary ********************
!ACP-Pre\Surface Body(ACP (Pre))(Mechanical Model),	Epoxy_Carbon_Woven_230GPa_Prepreg,	matid,	1
!************************* End Model Summary ********************
! get the diagonal of the bounding box. Needed later for other things
*get,_xmin,node,,mnloc,x
*get,_ymin,node,,mnloc,y
*get,_zmin,node,,mnloc,z
*get,_xmax,node,,mxloc,x
*get,_ymax,node,,mxloc,y
*get,_zmax,node,,mxloc,z
_ASMDIAG=(_xmax-_xmin)*(_xmax-_xmin)+(_ymax-_ymin)*(_ymax-_ymin)+(_zmax-_zmin)*(_zmax-_zmin)
_ASMDIAG=SQRT(_ASMDIAG)
/wb,contact,start          !  starting to send contact
/wb,contact,end            !  done creating contacts
/com,*********** Send Named Selection as Node Component ***********
CMBLOCK,NS_SUPPORT,NODE,       68
(8i10)
         1         2         5         6        11        12        15        16
       305       306       307       308       309       310       693       694
       695       696       697       698      1081      1082      1083      1084
      1085      1086      1469      1470      1471      1472      1473      1474
      1992      1993      1994      1995      1996      1997      1998      1999
      2000      2433      2434      2435      2436      2437      2438      2439
      2440      2441      2883      2884      2885      2886      2887      2888
      2889      2890      2891      3324      3325      3326      3327      3328
      3329      3330      3331      3332
/com,*********** Send Named Selection as Node Component ***********
CMBLOCK,NS_LOAD ,NODE,       68
(8i10)
         3         4         7         8         9        10        13        14
       299       300       301       302       303       304       687       688
       689       690       691       692      1075      1076      1077      1078
      1079      1080      1463      1464      1465      1466      1467      1468
      2001      2002      2003      2004      2005      2006      2007      2008
      2009      2442      2443      2444      2445      2446      2447      2448
      2449      2450      2874      2875      2876      2877      2878      2879
      2880      2881      2882      3315      3316      3317      3318      3319
      3320      3321      3322      3323
/golist
/wb,load,start             !  starting to send loads
/com,*********** Create Remote Point "Internal Remote Point" ***********
! -------- Remote Point Used by "Remote Displacement Support" --------
*set,tid,3
*set,cid,2
et,cid,177
et,tid,170
keyo,tid,2,1               ! Don't fix the pilot node
keyo,tid,4,111111
keyo,cid,12,5              ! Bonded Contact 
keyo,cid,4,0               ! Rigid CERIG style load
keyo,cid,2,2               ! MPC style contact
eblock,10,,,68
(15i9)
     3267        2        2        2        0        2     3332
     3268        2        2        2        0     3332     3331
     3269        2        2        2        0     3331     3330
     3270        2        2        2        0     3330     3329
     3271        2        2        2        0     3329     3328
     3272        2        2        2        0     3328     3327
     3273        2        2        2        0     3327     3326
     3274        2        2        2        0     3326     3325
     3275        2        2        2        0     3325     3324
     3276        2        2        2        0     3324        1
     3277        2        2        2        0        6     2891
     3278        2        2        2        0     2891     2890
     3279        2        2        2        0     2890     2889
     3280        2        2        2        0     2889     2888
     3281        2        2        2        0     2888     2887
     3282        2        2        2        0     2887     2886
     3283        2        2        2        0     2886     2885
     3284        2        2        2        0     2885     2884
     3285        2        2        2        0     2884     2883
     3286        2        2        2        0     2883        5
! ... 49 like lines cut
*set,_npilot,3333
_npilot129=_npilot
type,tid
mat ,cid
real,cid
tshape,pilo
en,3335,_npilot
tshape
/com,*********** Create Remote Point "Internal Remote Point 2" ***********
! -------- Remote Point Used by "Remote Displacement" --------
*set,tid,5
*set,cid,4
et,cid,177
et,tid,170
keyo,tid,2,1               ! Don't fix the pilot node
keyo,tid,4,111111
keyo,cid,12,5              ! Bonded Contact 
keyo,cid,4,0               ! Rigid CERIG style load
keyo,cid,2,2               ! MPC style contact
eblock,10,,,68
(15i9)
     3336        4        4        4        0        3     3315
     3337        4        4        4        0     3315     3316
     3338        4        4        4        0     3316     3317
     3339        4        4        4        0     3317     3318
     3340        4        4        4        0     3318     3319
     3341        4        4        4        0     3319     3320
     3342        4        4        4        0     3320     3321
     3343        4        4        4        0     3321     3322
     3344        4        4        4        0     3322     3323
     3345        4        4        4        0     3323        4
     3346        4        4        4        0        7     2874
     3347        4        4        4        0     2874     2875
     3348        4        4        4        0     2875     2876
     3349        4        4        4        0     2876     2877
     3350        4        4        4        0     2877     2878
     3351        4        4        4        0     2878     2879
     3352        4        4        4        0     2879     2880
     3353        4        4        4        0     2880     2881
     3354        4        4        4        0     2881     2882
     3355        4        4        4        0     2882        8
! ... 49 like lines cut
*set,_npilot,3334
_npilot137=_npilot
type,tid
mat ,cid
real,cid
tshape,pilo
en,3404,_npilot
tshape
/com,*********** Construct Remote Displacement ***********
/com,*********** Construct Remote Displacement ***********

*DIM,_loadvari136ux,TABLE,3,1,1,TIME, , , 0
! Time values
*TAXIS,_loadvari136ux(1),1,0.,1.,2.
! Load values
_loadvari136ux(1,1,1) = 0.
_loadvari136ux(2,1,1) = 0.
_loadvari136ux(3,1,1) = 0.



*DIM,_loadvari136rotx,TABLE,3,1,1,TIME, , , 0
! Time values
*TAXIS,_loadvari136rotx(1),1,0.,1.,2.
! Load values
_loadvari136rotx(1,1,1) = 0.
_loadvari136rotx(2,1,1) = 3.49065850398866e-002
_loadvari136rotx(3,1,1) = 0.



*DIM,_loadvari136rotz,TABLE,3,1,1,TIME, , , 0
! Time values
*TAXIS,_loadvari136rotz(1),1,0.,1.,2.
! Load values
_loadvari136rotz(1,1,1) = 0.
_loadvari136rotz(2,1,1) = 0.
_loadvari136rotz(3,1,1) = 2.26892802759263e-002



/COM,*** Create a component for all remote displacements ***
CMBLOCK,REMOTEDISPALL,NODE,        2
(8i10)
      3333      3334

/gst,on,on
fini
*get,_numnode,node,0,count
*get,_numelem,elem,0,count
*get, _MAXELEMNUM, elem, 0, NUM, MAX
*get, _MAXNODENUM, node, 0, NUM, MAX
*get, _MAXELEMTYPE, etyp, 0, NUM, MAX
*get, _MAXREALCONST, rcon, 0, NUM, MAX
/go
/wb,load,end               !  done creating loads
/com,--- Number of total nodes = %_numnode%
/com,--- Number of contact elements = 136
/com,--- Number of spring elements = 0
/com,--- Number of bearing elements = 0
/com,--- Number of solid elements = 3264
/com,--- Number of condensed parts = 0
/com,--- Number of total elements = %_numelem%
*get,_wallbsol,active,,time,wall
/com,****************************************************************************
/com,*************************    SOLUTION       ********************************
/com,****************************************************************************
/solu
antype,0                   ! static analysis
_thickRatio=  0     ! Ratio of thick parts in the model
eqsl,sparse,,,,,1
cntr,print,1               ! print out contact info and also make no initial contact an error
cncheck,dmp		!	Enable program controlled contact splitting for distributed memory parallel run
dmpoption,emat,no             ! Don't combine emat file for DANSYS
dmpoption,esav,no             ! Don't combine esav file for DANSYS
nldiag,cont,iter           ! print out contact info each equilibrium iteration
rescontrol,,none                 ! Do not keep any restart files
/com,****************************************************
/com,******************* SOLVE FOR LS 1 OF 2 ****************
d,3333,ux,0.
d,3333,uy,0.
d,3333,uz,0.
d,3333,rotx,0.
d,3333,roty,0.
d,3333,rotz,0.
d,3334,ux,%_loadvari136ux%
d,3334,rotx,%_loadvari136rotx%
d,3334,rotz,%_loadvari136rotz%
/nopr
/gopr
nsub,1,1,1
time,1.
outres,erase
outres,all,none
outres,nsol,all,
outres,rsol,all
outres,eangl,all
outres,etmp,all
outres,veng,all
outres,strs,all,
outres,epel,all,
outres,eppl,all,
outres,cont,all,
! *********** WB SOLVE COMMAND ***********
! check interactive state
*get,ANSINTER_,active,,int
*if,ANSINTER_,ne,0,then
/eof
*endif
solve
/com *************** Write FE CONNECTORS ********* 
CEWRITE,file,ce,,INTE
/com,****************************************************
/com,*************** FINISHED SOLVE FOR LS 1 *************
/com,****************************************************
/com,******************* SOLVE FOR LS 2 OF 2 ****************
/nopr
/gopr
nsub,1,1,1
time,2.
outres,erase
outres,all,none
outres,nsol,all,
outres,rsol,all
outres,eangl,all
outres,etmp,all
outres,veng,all
outres,strs,all,
outres,epel,all,
outres,eppl,all,
outres,cont,all,
solve
/com,****************************************************
/com,*************** FINISHED SOLVE FOR LS 2 *************
*get,_wallasol,active,,time,wall
/nopr
*get,_numnode,node,0,count
*get,_numelem,elem,0,count
*get, _MAXELEMNUM, elem, 0, NUM, MAX
*get, _MAXNODENUM, node, 0, NUM, MAX,,,INTERNAL
*get, _MAXELEMTYPE, etyp, 0, NUM, MAX
*get, _MAXREALCONST, rcon, 0, NUM, MAX
*get,_NSOLTHREADS,active,0,ntfs
*get,_NSOLPROCESSES,active,0,npfs
/gopr
/post1
xmlo,ENCODING,ISO-8859-1
xmlo,parm
/xml,parm,xml
fini
/gopr
*get,_walldone,active,,time,wall
_preptime=(_wallbsol-_wallstrt)*3600
_solvtime=(_wallasol-_wallbsol)*3600
_posttime=(_walldone-_wallasol)*3600
_totaltim=(_walldone-_wallstrt)*3600
*get,_dlbratio,active,0,solu,dlbr
*get,_combtime,active,0,solu,comb
*get,_ssmode,active,0,solu,ssmm
*get,_ndofs,active,0,solu,ndof
*get,_sol_end_time,active,0,set,time
*if,_sol_end_time,eq,2.000000,then
/fclean				!clean distributed files
*endif
/com,--- Total number of nodes = %_numnode%
/com,--- Total number of elements = %_numelem%
/com,--- Element load balance ratio = %_dlbratio%
/com,--- Time to combine distributed files = %_combtime%
/com,--- Sparse memory mode = %_ssmode%
/com,--- Number of DOF = %_ndofs%
/wb,file,end               ! done with WB generated input
