/COM,ANSYS RELEASE PRIME RELEASE 01/24/23 00:08:44 GMT Standard Time
/COM,File: D:/PyPrimeMesh/stacker_231/hex.cdb
/PREP7
/UNITS,MKS
MP, EX, 1, 200000000000, !Pa
MP, DENS, 1, 7850, !kg m ^ -3
MP, NUXY, 1, 0.3,
MP, MURX, 1, 10000,
MP, ALPX, 1, 1.2e-05, !C ^ -1
MP, C, 1, 434, !J kg ^ -1 C ^ -1
MP, KXX, 1, 60.5, !W m ^ -1 C ^ -1
MP, RSVX, 1, 1.7e-07, !kg m ^ 3 A ^ -2 s ^ -3
/COM,Beam188 -> Line2
/COM,Beam189 -> Line3
/COM,Shell181 -> Tri3
/COM,Shell181 -> Quad4
/COM,Shell281 -> Tri6
/COM,Shell281 -> Quad8
/COM,Solid285 -> Tet4
/COM,Solid185 -> Hex8
/COM,Solid187 -> Tet10
/COM,Solid186 -> Hex20
ET,        1, 188
ET,        2, 189
ET,        3, 181
ET,        4, 181
ET,        5, 281
ET,        6, 281
ET,        7, 285
ET,        8, 185
ET,        9, 187
ET,       10, 186
NBLOCK,3,SOLID,343,343
(3i9,3e20.13)
        1        0        0-1.4000000432134e-02 3.2000001519918e-02-1.0999999940395e-02
        2        0        0-1.4000000000000e-02 3.2000000000000e-02-5.6666666641833e-03
        3        0        0-1.4000000000000e-02 2.6666667933265e-02-1.1000000000000e-02
        4        0        0-1.3999999567866e-02 2.6666666666667e-02-5.6666666666668e-03
        5        0        0-8.6666671559216e-03 3.2000000000000e-02-1.1000000000000e-02
        6        0        0-8.6666666666666e-03 3.2000000000000e-02-5.6666666666666e-03
        7        0        0-8.6666666666668e-03 2.6666666666667e-02-1.1000000059605e-02
        8        0        0-8.6666661774118e-03 2.6666666666667e-02-5.6666666691501e-03
        9        0        0-3.3333338797093e-03 3.2000000000000e-02-1.1000000000000e-02
       10        0        0-3.3333333333334e-03 3.2000000000000e-02-5.6666666666666e-03
       11        0        0-3.3333333333334e-03 2.6666666666667e-02-1.1000000059605e-02
       12        0        0-3.3333327869575e-03 2.6666666666667e-02-5.6666666691502e-03
       13        0        0 1.9999993965030e-03 3.2000000000000e-02-1.1000000000000e-02
       14        0        0 2.0000000000000e-03 3.2000000000000e-02-5.6666666666666e-03
       15        0        0 2.0000000000000e-03 2.6666666666667e-02-1.1000000059605e-02
       16        0        0 2.0000006034970e-03 2.6666666666667e-02-5.6666666691502e-03
       17        0        0 7.3333326727153e-03 3.2000000000000e-02-1.1000000000000e-02
       18        0        0 7.3333333333334e-03 3.2000000000000e-02-5.6666666666666e-03
       19        0        0 7.3333333333334e-03 2.6666666666667e-02-1.1000000059605e-02
       20        0        0 7.3333339939515e-03 2.6666666666667e-02-5.6666666691502e-03
! ... 323 like lines cut
N, R5.3, LOC, -1,
EBLOCK,19,SOLID,216,216
(19i9)
        1        8        0        0        0        0        0        0        8        0        1        4        8        7        3        2        6        5        1
        1        8        0        0        0        0        0        0        8        0        2        8        7        5        6       12       11        9       10
        1        8        0        0        0        0        0        0        8        0        3       12       11        9       10       16       15       13       14
        1        8        0        0        0        0        0        0        8        0        4       16       15       13       14       20       19       17       18
        1        8        0        0        0        0        0        0        8        0        5       20       19       17       18       24       23       21       22
        1        8        0        0        0        0        0        0        8        0        6       24       23       21       22       28       27       25       26
        1        8        0        0        0        0        0        0        8        0        7        8        4        3        7       32       30       29       31
        1        8        0        0        0        0        0        0        8        0        8       12        8        7       11       34       32       31       33
        1        8        0        0        0        0        0        0        8        0        9       16       12       11       15       36       34       33       35
        1        8        0        0        0        0        0        0        8        0       10       20       16       15       19       38       36       35       37
        1        8        0        0        0        0        0        0        8        0       11       24       20       19       23       40       38       37       39
        1        8        0        0        0        0        0        0        8        0       12       28       24       23       27       42       40       39       41
        1        8        0        0        0        0        0        0        8        0       13       32       30       29       31       46       44       43       45
        1        8        0        0        0        0        0        0        8        0       14       34       32       31       33       48       46       45       47
        1        8        0        0        0        0        0        0        8        0       15       36       34       33       35       50       48       47       49
        1        8        0        0        0        0        0        0        8        0       16       38       36       35       37       52       50       49       51
        1        8        0        0        0        0        0        0        8        0       17       40       38       37       39       54       52       51       53
        1        8        0        0        0        0        0        0        8        0       18       42       40       39       41       56       54       53       55
        1        8        0        0        0        0        0        0        8        0       19       46       44       43       45       60       58       57       59
        1        8        0        0        0        0        0        0        8        0       20       48       46       45       47       62       60       59       61
! ... 197 like lines cut
FINISH
