/batch
/config,noeldb,1     ! force off writing results to database
*get,_wallstrt,active,,time,wall
! ANSYS input file written by Workbench version 18.0 ALPHA
! File used for geometry attach: D:\scratch\ssosc\wbproject\oscplate_steady_files\dp0\SYS\DM\SYS.agdb
/title,oscplate_steady--Static Structural (A5)
*DIM,_wb_ProjectScratch_dir,string,248
_wb_ProjectScratch_dir(1) = 'D:\scratch\ssosc\wbproject\oscplate_steady_files\dp0\SYS\MECH\'
*DIM,_wb_SolverFiles_dir,string,248
_wb_SolverFiles_dir(1) = 'D:\scratch\ssosc\wbproject\oscplate_steady_files\dp0\SYS\MECH\'
*DIM,_wb_userfiles_dir,string,248
_wb_userfiles_dir(1) = 'D:\scratch\ssosc\wbproject\oscplate_steady_files\user_files\'
/com,--- Data in consistent MKS units. See Solving Units in the help system for more information.
/units,MKS
/nopr
/wb,file,start              !  signify a WB generated input file
/prep7
! Turn off shape checking because checks already performed inside WB mesher.
! See help system for more information.
SHPP,OFF,,NOWARN
/nolist
etcon,set             ! allow ANSYS to choose best KEYOP's for 180x elements
/com,*********** Nodes for the whole assembly ***********
nblock,3
(1i9,3e20.9e3)
        1    1.000000000E+001    0.000000000E+000    4.000000000E-001
        2    1.000000000E+001    0.000000000E+000    0.000000000E+000
        3    1.000000000E+001    0.000000000E+000    3.714285714E-001
        4    1.000000000E+001    0.000000000E+000    3.428571429E-001
        5    1.000000000E+001    0.000000000E+000    3.142857143E-001
        6    1.000000000E+001    0.000000000E+000    2.857142857E-001
        7    1.000000000E+001    0.000000000E+000    2.571428571E-001
        8    1.000000000E+001    0.000000000E+000    2.285714286E-001
        9    1.000000000E+001    0.000000000E+000    2.000000000E-001
       10    1.000000000E+001    0.000000000E+000    1.714285714E-001
       11    1.000000000E+001    0.000000000E+000    1.428571429E-001
       12    1.000000000E+001    0.000000000E+000    1.142857143E-001
       13    1.000000000E+001    0.000000000E+000    8.571428571E-002
       14    1.000000000E+001    0.000000000E+000    5.714285714E-002
       15    1.000000000E+001    0.000000000E+000    2.857142857E-002
       16    1.006000000E+001    0.000000000E+000    0.000000000E+000
       17    1.003000000E+001    0.000000000E+000    0.000000000E+000
       18    1.006000000E+001    0.000000000E+000    4.000000000E-001
       19    1.006000000E+001    0.000000000E+000    3.714285714E-001
       20    1.006000000E+001    0.000000000E+000    3.428571429E-001
! ... 13198 like lines cut
/wb,elem,start            !  set before creation of elements
/com,*********** Elements for Body 1 "solid" ***********
et,1,187
eblock,19,solid,,8168
(19i9)
        1        1        1        1        0        0        0        0       10        0        1     1156     1819     1631     1798    10097    12756    10094    10096
    13113    12755
        1        1        1        1        0        0        0        0       10        0        2      227     1840     1133     1141     3621     9943     3617     3618
     9998     9935
        1        1        1        1        0        0        0        0       10        0        3      227      459     1840      414     3613     5558     3621     3612
     5258     5265
        1        1        1        1        0        0        0        0       10        0        4     1062     1710     1094     1147     9570     9716     9567     9569
    10036     9715
        1        1        1        1        0        0        0        0       10        0        5     1214     1970     1216     1913    10504    10511    10496    10503
    13205    10510
        1        1        1        1        0        0        0        0       10        0        6      791     1813      924     1162     8065     8924     8061     8062
    10143     8920
        1        1        1        1        0        0        0        0       10        0        7      651      931      845     1659     6758     8446     6754     6762
     8964     8449
        1        1        1        1        0        0        0        0       10        0        8     1214     1583     1970     1913    10498    12551    10504    10503
    12550    13205
        1        1        1        1        0        0        0        0       10        0        9      584     1842     1129     1806     6216     9913     6214     6215
    13124     9912
        1        1        1        1        0        0        0        0       10        0       10      954     1228     1970     1913     9081    10597     9085     9084
    10596    13205
! ... 16317 like lines cut
!Material Id = {ED475014-3CEB-4412-93FA-1DFAB4E01814}
/wb,elem,end               !  done creating elements
/com,*********** Send User Defined Coordinate System(s) ***********
csys,0
toffst,273.15,  ! Temperature offset from absolute zero
/com,*********** Set Reference Temperature ***********
tref,22.
/wb,mat,start              !  starting to send materials
/com,*********** Send Materials ***********
MP,DENS,1,2550,	! kg m^-3
MP,ALPX,1,1.2e-05,	! C^-1
MP,C,1,434,	! J kg^-1 C^-1
MP,KXX,1,60.5,	! W m^-1 C^-1
MP,RSVX,1,1.7e-07,	! kg m^3 A^-2 s^-3
MP,EX,1,4000000.0,	! C^-1
MP,NUXY,1,0.35,
MP,MURX,1,10000,

/wb,mat,end                !  done sending materials
!************************* Model Summary ********************
!solid,	plate,	matid,	1
!************************* End Model Summary ********************
! get the diagonal of the bounding box. Needed later for other things
*get,_xmin,node,,mnloc,x
*get,_ymin,node,,mnloc,y
*get,_zmin,node,,mnloc,z
*get,_xmax,node,,mxloc,x
*get,_ymax,node,,mxloc,y
*get,_zmax,node,,mxloc,z
_ASMDIAG=(_xmax-_xmin)*(_xmax-_xmin)+(_ymax-_ymin)*(_ymax-_ymin)+(_zmax-_zmin)*(_zmax-_zmin)
_ASMDIAG=SQRT(_ASMDIAG)
/wb,contact,start          !  starting to send contact
/wb,contact,end            !  done creating contacts
/golist
/wb,load,start             !  starting to send loads
/com,*********** Fixed Supports ***********
CMBLOCK,_FIXEDSU,NODE,      145
(8i10)
         1         2         3         4         5         6         7         8
         9        10        11        12        13        14        15        16
        17        18        19        20        21        22        23        24
        25        26        27        28        29        30        31        32
      1096      1097      1098      1099      1100      1101      1102      1103
      1104      1105      1106      1107      1108      1973      1974      1977
      1979      1980      1984      1986      1987      1990      1994      1995
      1997      2000      2001      2003      2006      2007      2009      2012
      2013      2016      2020      2021      2023      2026      2027      2030
      2033      2034      2038      2041      2042      2044      2047      2048
      2051      2054      2055      2059      2062      2063      2066      2068
      2071      2072      2077      2080      2084      2085      2089      2091
      2093      2094      2097      2100      2101      2104      2107      2108
      2111      2114      2115      2118      2121      2122      2124      2127
      2128      2130      2133      2134      2137      2140      2141      2144
      2147      2148      2150      2153      2154      2157      2160      2161
      2164      2168      2169      2173      2179      9722      9723      9728
      9729      9733      9734      9738      9739      9742      9743      9747
      9748
cmsel,s,_FIXEDSU
d,all,all
nsel,all
/com,*********** Create FSI Flags ***********
CMBLOCK,FSIN_1  ,NODE,     3929
(8i10)
         1         2         3         4         5         6         7         8
         9        10        11        12        13        14        15        16
        18        19        20        21        22        23        24        25
        26        27        28        29        30        31        33        34
        35        36        37        38        39        40        41        42
        43        44        45        46        47        48        49        50
        51        52        53        54        55        56        57        58
        59        60        61        62        63        64        65        66
        67        68        69        70        71        72        73        74
        75        76        77        78        79        80        81        82
        83        84        85        86        87        88        89        90
        91        92        93        94        95        96        97        98
        99       100       101       102       103       104       105       106
       107       108       109       110       111       112       113       114
       115       116       117       118       119       120       121       122
       123       124       125       126       127       128       129       130
       131       132       133       134       135       136       137       138
       139       140       141       142       143       144       145       146
       147       148       149       150       151       152       153       154
       155       156       157       158       159       160       161       162
! ... 472 like lines cut
SF,FSIN_1,FSIN,1
nsel,all
/gst,on,on
fini
*get,_numnode,node,0,count
*get,_numelem,elem,0,count
*get, _MAXELEMNUM, elem, 0, NUM, MAX
*get, _MAXNODENUM, node, 0, NUM, MAX
*get, _MAXELEMTYPE, etyp, 0, NUM, MAX
*get, _MAXREALCONST, real, 0, NUM, MAX
/go
/wb,load,end               !  done creating loads
/com,--- Number of total nodes = %_numnode%
/com,--- Number of contact elements = 0
/com,--- Number of spring elements = 0
/com,--- Number of bearing elements = 0
/com,--- Number of solid elements = 8168
/com,--- Number of total elements = %_numelem%
*get,_wallbsol,active,,time,wall
/com,****************************************************************************
/com,*************************    SOLUTION       ********************************
/com,****************************************************************************
/solu
antype,0                   ! static analysis
eqsl,pcg,1e-8,,,,,,1
cntr,print,1               ! print out contact info and also make no initial contact an error
rstsuppress,none           ! don't suppress anything due to presense of FSI loading
dmpopt,emat,no             ! Don't combine emat file for DANSYS
dmpopt,esav,no             ! Don't combine esav file for DANSYS
cmwrite                    ! Export components due to presence of FSI loading
nldiag,cont,iter           ! print out contact info each equilibrium iteration
resc,linear,last           ! Turn on restart files due to presence of FSI loads
scopt,,no                  ! Activate mid-side node transfer from APDL to SC
/com,****************************************************
/com,******************* SOLVE FOR LS 1 OF 1 ****************
/nopr
/gopr
nsub,1,1,1
time,1.
outres,erase
outres,all,none
outres,nsol,all
outres,rsol,all
outres,strs,all
outres,epel,all
outres,eppl,all
stabilize,off                   ! Stabilization turned OFF by user
! *********** WB SOLVE COMMAND ***********
! check interactive state
*get,ANSINTER_,active,,int
*if,ANSINTER_,ne,0,then
/eof
*endif
solve
/com *************** Write FE CONNECTORS ********* 
CEWRITE,file,ce,,INTE
/com,****************************************************
/com,*************** FINISHED SOLVE FOR LS 1 *************
*set,_DS_PROGRESS          ! turn off progress updates to avoid virus scanning bug
*get,_wallasol,active,,time,wall
/nopr
*get,_numnode,node,0,count
*get,_numelem,elem,0,count
*get, _MAXELEMNUM, elem, 0, NUM, MAX
*get, _MAXNODENUM, node, 0, NUM, MAX,,,INTERNAL
*get, _MAXELEMTYPE, etyp, 0, NUM, MAX
*get, _MAXREALCONST, real, 0, NUM, MAX
/gopr
*get,_PCGITER,active,,solu,cgiter
/post1
xmlo,ENCODING,ISO-8859-1
xmlo,parm
/xml,parm,xml
fini
/gopr
*get,_walldone,active,,time,wall
_preptime=(_wallbsol-_wallstrt)*3600
_solvtime=(_wallasol-_wallbsol)*3600
_posttime=(_walldone-_wallasol)*3600
_totaltim=(_walldone-_wallstrt)*3600
/wb,file,end               ! done with WB generated input
